*ECE322L Homework 6

Vcc 1 0 DC 5
Vbb 2 0 DC 2
RC 1 3 5k
RB 2 4 50K
RL 3 0 10K


*Qxxx C B E NPN
Q1 3 4 0 NPN

*.MODEL NPN NPN(BF=75)
*.MODEL NPN NPN(BF=75 Is=823.235E-18)
.MODEL NPN NPN(BF=75 Is=3.56735E-15)

.OP
