*

.lib "nom.lib"

vdd 1 0 dc 5

vina 2 0 pulse(0 5 0us 0.001us 0.001us 40us 80us)
vinb 3 0 pulse(0 5 20us 0.001us 0.001us 40us 80us)


m1 4 2 5 5 cmosn l=2u w=8u
m2 5 3 0 0 cmosn l=2u w=8u
m3 4 2 1 1 cmosp l=2u w=8u
m4 4 3 1 1 cmosp l=2u w=8u


.MODEL cmosn nmos LEVEL=2 VTO=0.6 KP=50u
.MODEL cmosp pmos LEVEL=2 VTO=-0.6 KP=50u

c1 4 0 100f

.op

.probe

.TRAN 1n 60u 0u

.end

