* TopSpice Schematic 8.42  Win32  Simulation Setup Commands

.AC DEC 10 1 1E+007
.PROBE
.PRINT TRAN V(vin),V(Vout)
.PRINT AC Vdb(Vout),Vp(Vout)

.OPTION SAVEOPB

