* Test1 SPICE demo file *

M1 3 2 0 0 ntype l=0.25u q=2.5u
M2 3 2 1 1 ptype l=0.25u w=5.0u
CL 3 0 1pf

VDD 1 0 DC 5V
Vin 2 0 DC 0V pulse(0 5 0ps 1ps 1ps 2ns 4ns)

.model ntype nmos (kp=100u vt0=1.2 lambda=0.01)
.model ptype pmos (kp=60u vto=-1.0 lambda=0.05)

.DC Vin 0 5 0.01
.tran 100ps 5ns
.probe V(2) V(3)
.end
